[General]
*.osgEarthScene.scene = "boston.earth"
*.playgroundLatitude = 47.8097
*.playgroundLongitude = -103.2782
*.playgroundWidth = 1000m
*.playgroundHeight = 1000m

image-path=../../images
record-eventlog = true
output-scalar-file-append = false
print-undisposed = true
**.vector-recording = false
**.routingRecorder.enabled = false
*.dmc*.lteNic.ip2lte.routingTableModule = "^.^.ipv4.routingTable"
#============= Coordinate System ================
*.physicalEnvironment.coordinateSystemModule = "<root>.coordinateSystem"
*.*.mobility.coordinateSystemModule = "<root>.coordinateSystem"
*.coordinateSystem.sceneLatitude = 48.15461319222509deg
*.coordinateSystem.sceneLongitude = -103.42326196942705deg
*.coordinateSystem.sceneHeading = 0deg

#============= Simulation parameters ================
sim-time-limit=5s
warmup-period=2s
repeat = 1

#============= Mobility parameters ================
**.mobility.constraintAreaMinZ = 0m
**.mobility.constraintAreaMaxZ = 0m

#============= AMC module parameters ================
**.rbAllocationType = "localized"
**.cellInfo.numRbDl = 6
**.cellInfo.numRbUl = 6
**.numBands = 6

#============= Statistics ================
output-scalar-file = ${resultdir}/${configname}/${repetition}.sca
output-vector-file = ${resultdir}/${configname}/${repetition}.vec
seed-set = ${repetition}

##################################################
# SingleCell Configuration			             #
# - Add DL traffic to the parent configuration   #         
##################################################
[Config SingleCell-DL]
extends=_SingleCell
description =

*.ue[*].app[0].typename = "VoIPReceiver"
*.ue*.app[0].typename = "VoIPReceiver"
*.server.app[*].destAddress = "ue["+string(ancestorIndex(0))+"]" # obtain the address of the client by reading its index in the array of udpApps
*.server.app[*].localPort = 3088+ancestorIndex(0) 
*.server.app[*].typename = "VoIPSender"
*.server.app[*].startTime = uniform(0s,0.02s)
#------------------------------------#

##################################################
# SingleCell Configuration			             #
# - Add UL traffic to the parent configuration   #         
##################################################
[Config SingleCell-UL]
extends=_SingleCell
description =

*.server.app[*].typename = "VoIPReceiver"
*.server.app[*].localPort = 3000+ancestorIndex(0)
*.ue[*].app[*].destAddress = "server" 
*.ue[*].app[*].destPort = 3000+ancestorIndex(1)
*.ue[*].app[*].localPort = 3088 
*.ue[*].app[*].typename = "VoIPSender"
*.ue[*].app[*].startTime = uniform(0s,0.02s)
#------------------------------------#

##################################################
# MultiCell Configuration			             #
# - Add DL traffic to the parent configuration   #         
##################################################
[Config MultiCell-DL]
extends=_MultiCell
description =

#============= Application Setup =============
*.ue*.app[*].typename = "VoIPReceiver"
*.server.app[*].typename = "VoIPSender"
*.server.app[0].destAddress = "ue11" 
*.server.app[1].destAddress = "ue12"
*.server.app[2].destAddress = "ue21"
*.server.app[3].destAddress = "ue22"
*.server.app[*].localPort = 3088+ancestorIndex(0) 
*.server.app[*].startTime = uniform(0s,0.02s)
#------------------------------------#

######################################################
# MultiCell Configuration			                 #
# - Add External Cells to the parent configuration   #         
######################################################
[Config MultiCell-DL-ExtCells]
extends=MultiCell-DL
description =

*.numExtCells = 2

#============= Configuration ============
*.extCell[*].txPower = 20
*.extCell[*].txDirection = "ANISOTROPIC"
*.extCell[*].bandAllocationType = "RANDOM_ALLOC"
*.extCell[*].bandUtilization = 0.5

#============= Positioning ============
*.extCell[0].position_x = 100m
*.extCell[0].position_y = 600m 
*.extCell[0].txAngle = 315
*.extCell[1].position_x = 600m
*.extCell[1].position_y = 600m
*.extCell[1].txAngle = 225

#####################################
# SingleCell Base Configuration	    #
#####################################
[Config _SingleCell]
#network = lte.simulations.networks.SingleCell
#network = lte.simulations.networks.PlayGround
network = lte.simulations.networks.ND
description = Abstract configuration. Do NOT run!
*.configurator.config = xmldoc("demo.xml")
*.numeNB = 16
*.numUe = ${numUEs=1}
*.spy.numUe = ${numUEs}

#============= Amount of applications ================
*.ue[*].numApps = 1
*.server.numApps = ${numUEs} # applications on server should be equal to (numUEs)*(ue[*].numUdpApps) 

# connect each UE to the eNB
**.ue[*].macCellId = 8
**.ue[*].masterId = 8

##============= Positioning and mobility ============
#*.eNB.mobility.initFromDisplayString = false
#*.eNB.mobility.initialX = 300m
#*.eNB.mobility.initialY = 300m
#*.ue[*].mobility.constraintAreaMaxX = 600m
#*.ue[*].mobility.constraintAreaMaxY = 600m
#*.ue[*].mobility.constraintAreaMinX = 0m
#*.ue[*].mobility.constraintAreaMinY = 0m
#*.ue[*].mobility.initFromDisplayString = false
#*.ue[*].mobility.initialX = uniform(0m,600m)
#*.ue[*].mobility.initialY = uniform(0m,600m)
#*.ue[*].mobility.speed = 1mps
#*.ue[*].mobilityType = "MyMobility"
##------------------------------------#

#============= Positioning and mobility ============
*.eNB[*].mobility.initFromDisplayString = false
#*.eNB[*].mobility.initialLatitude = uniform(47.8829452868408deg, 47.882935286830deg)
#*.eNB[*].mobility.initialLatitude = uniform(47.8829deg, 47.8839deg)
*.eNB[0].mobility.initialLatitude = 47.9803deg
*.eNB[0].mobility.initialLongitude = -102.9394deg
*.eNB[0].mobility.initialAltitude = 0m
*.eNB[1].mobility.initialLatitude = 47.9091deg
*.eNB[1].mobility.initialLongitude = -103.1991deg
*.eNB[1].mobility.initialAltitude = 0m
*.eNB[2].mobility.initialLatitude = 48.0386deg
*.eNB[2].mobility.initialLongitude = -102.9727deg
*.eNB[2].mobility.initialAltitude = 0m
*.eNB[3].mobility.initialLatitude = 48.0817deg
*.eNB[3].mobility.initialLongitude = -102.8637deg
*.eNB[3].mobility.initialAltitude = 0m
*.eNB[4].mobility.initialLatitude = 47.9768deg
*.eNB[4].mobility.initialLongitude = -102.8011deg
*.eNB[4].mobility.initialAltitude = 0m
*.eNB[5].mobility.initialLatitude = 47.8019deg
*.eNB[5].mobility.initialLongitude = -102.7192deg
*.eNB[5].mobility.initialAltitude = 0m
*.eNB[6].mobility.initialLatitude = 47.8023deg
*.eNB[6].mobility.initialLongitude = -102.9394deg
*.eNB[6].mobility.initialAltitude = 0m
*.eNB[7].mobility.initialLatitude = 47.7952deg
*.eNB[7].mobility.initialLongitude = -103.2185deg
*.eNB[7].mobility.initialAltitude = 0m
*.eNB[8].mobility.initialLatitude = 47.8042deg
*.eNB[8].mobility.initialLongitude = -103.2465deg
*.eNB[8].mobility.initialAltitude = 0m
*.eNB[9].mobility.initialLatitude = 47.7990deg
*.eNB[9].mobility.initialLongitude = -103.2629deg
*.eNB[9].mobility.initialAltitude = 0m
*.eNB[10].mobility.initialLatitude = 47.7976deg
*.eNB[10].mobility.initialLongitude = -103.2911deg
*.eNB[10].mobility.initialAltitude = 0m
*.eNB[11].mobility.initialLatitude = 47.7856deg
*.eNB[11].mobility.initialLongitude = -103.2832deg
*.eNB[11].mobility.initialAltitude = 0m
*.eNB[12].mobility.initialLatitude = 47.7899deg
*.eNB[12].mobility.initialLongitude = -103.3025deg
*.eNB[12].mobility.initialAltitude = 0m
*.eNB[13].mobility.initialLatitude = 47.7967deg
*.eNB[13].mobility.initialLongitude = -102.9403deg
*.eNB[13].mobility.initialAltitude = 0m
*.eNB[14].mobility.initialLatitude = 47.8044deg
*.eNB[14].mobility.initialLongitude = -103.2914deg
*.eNB[14].mobility.initialAltitude = 0m
*.eNB[15].mobility.initialLatitude = 47.7719deg
*.eNB[15].mobility.initialLongitude = -103.3676deg
*.eNB[15].mobility.initialAltitude = 0m

#*.ue[*].mobility.constraintAreaMaxX = 55000m
#*.ue[*].mobility.constraintAreaMaxY = 55000m
#*.ue[*].mobility.constraintAreaMinX = 0m
#*.ue[*].mobility.constraintAreaMinY = 0m
*.ue[*].mobility.initFromDisplayString = false
#*.ue[*].mobility.initialX = uniform(0m,600m)
#*.ue[*].mobility.initialY = uniform(0m,600m)
#*.ue[*].mobility.initialLatitude = uniform(47.8829452868408deg, 47.882935286830deg)
#*.ue[*].mobility.initialLongitude = uniform(-102.9745230496952deg,-102.974523059695deg)
*.ue[*].mobility.initialLatitude = 47.8075deg
*.ue[*].mobility.initialLongitude = -103.2557deg
*.ue[*].mobility.initialAltitude = 0m

#*.dmc*.mobility.initialLatitude = 47.8075deg
#*.dmc*.mobility.initialLongitude = -103.2557deg
#*.dmc*.mobility.initialAltitude = 0m

*.ue[*].mobility.speed = 10mps
*.ue[*].mobilityType = "MyMobility"
#------------------------------------#

#####################################
    
# MultiCell Base Configuration	    #
#####################################
[Config _MultiCell]
network = lte.simulations.networks.MultiCell
description = Abstract configuration. Do NOT run!
*.configurator.config = xmldoc("demo.xml")

#============= Amount of applications ================
*.ue*.numApps = 1
*.server.numApps = 4

# connect each UE to its serving eNB
**.ue1*.macCellId = 1
**.ue1*.masterId = 1
**.ue2*.macCellId = 2
**.ue2*.masterId = 2

#============= Positioning and mobility ============
*.eNodeB*.mobility.initFromDisplayString = false
*.eNodeB1.mobility.initialX = 100m
*.eNodeB1.mobility.initialY = 100m
*.eNodeB2.mobility.initialX = 600m
*.eNodeB2.mobility.initialY = 100m
*.eNodeB*.lteNic.phy.txDirection = "ANISOTROPIC"
*.eNodeB1.lteNic.phy.txAngle = 45
*.eNodeB2.lteNic.phy.txAngle = 135
*.ue*.mobility.constraintAreaMaxX = 1000m
*.ue*.mobility.constraintAreaMaxY = 1000m
*.ue*.mobility.constraintAreaMinX = 0m
*.ue*.mobility.constraintAreaMinY = 0m
*.ue*.mobility.initFromDisplayString = false
*.ue1*.mobility.initialX = uniform(100m,250m)
*.ue1*.mobility.initialY = uniform(100m,250m)
*.ue2*.mobility.initialX = uniform(350m,600m)
*.ue2*.mobility.initialY = uniform(100m,250m)
#------------------------------------#
